/*--------------------------------*- C++ -*----------------------------------*\
| =========                 |                                                 |
| \\      /  F ield         | OpenFOAM: The Open Source CFD Toolbox           |
|  \\    /   O peration     | Version:  5                                     |
|   \\  /    A nd           | Web:      www.OpenFOAM.org                      |
|    \\/     M anipulation  |                                                 |
\*---------------------------------------------------------------------------*/
FoamFile
{
    version     2.0;
    format      ascii;
    class       volScalarField;
    object      M1;
}
// ************************************************************************* //

dimensions          [-1 0 0 0 0 0 0]; //M1=realM1/rho

internalField       uniform 0.0;

boundaryField
{
    walls
    {
        type                zeroGradient;
    }
}

// ************************************************************************* //
