/*--------------------------------*- C++ -*----------------------------------*\
| =========                 |                                                 |
| \\      /  F ield         | OpenFOAM: The Open Source CFD Toolbox           |
|  \\    /   O peration     | Version:  5                                     |
|   \\  /    A nd           | Web:      www.OpenFOAM.org                      |
|    \\/     M anipulation  |                                                 |
\*---------------------------------------------------------------------------*/
FoamFile
{
    version     2.0;
    format      ascii;
    class       dictionary;
    object      blockMeshDict;
}
// * * * * * * * * * * * * * * * * * * * * * * * * * * * * * * * * * * * * * //

convertToMeters 0.001;

vertices
(
    (-54 0 -54)
    (54 0 -54)
    (54 108 -54)
    (-54 108 -54)
    (-54 0 54)
    (54 0 54)
    (54 108 54)
    (-54 108 54)
);

blocks
(
    hex (0 1 2 3 4 5 6 7) (54 54 54) simpleGrading (1 1 1)
);

edges
(
);

patches
(
    wall walls
    (
        (2 6 5 1)
        (0 4 7 3)
        (0 1 5 4)
        (4 5 6 7)
        (7 6 2 3)
        (3 2 1 0)
    )
);

mergePatchPairs
(
);

// ************************************************************************* //
