/*--------------------------------*- C++ -*----------------------------------*\
| =========                 |                                                 |
| \\      /  F ield         | OpenFOAM: The Open Source CFD Toolbox           |
|  \\    /   O peration     | Version:  5                                     |
|   \\  /    A nd           | Web:      www.OpenFOAM.org                      |
|    \\/     M anipulation  |                                                 |
\*---------------------------------------------------------------------------*/
FoamFile
{
    version     2.0;
    format      ascii;
    class       dictionary;
    location    "constant";
    object      radiationProperties;
}
// * * * * * * * * * * * * * * * * * * * * * * * * * * * * * * * * * * * * * //

radiation       on;

radiationModel  P1;

solverFreq	10;

absorptionEmissionModel	none;

scatterModel	none;

transmissivityModel	none;

sootModel	momicSoot<gasHThermoPhysics>;

momicSootCoeffs
{
Sct	0.7;
rhoS	1800; //unit: kg/m3
NA	6.02214e+26;
cperPAH 2; //unit: #
cperDimer 4; // unit: #
diamPAH 7.11e-10; // unit: m
}


// ************************************************************************* //
